@<TRIPOS>MOLECULE
jnk.pp.1-1.sdf
   47    50     0     0     0
SMALL
NO_CHARGES

@<TRIPOS>ATOM
      1 C1         22.3440   14.2120   29.1930 C.3       1 MOL         0.0000
      2 S1         23.4130   12.9920   30.2130 S.3       1 MOL         0.0000
      3 C2         22.0280   12.3270   31.1960 C.2       1 MOL         0.0000
      4 S2         21.9860   10.5600   30.9530 S.3       1 MOL         0.0000
      5 C3         20.6300   10.4280   32.2220 C.2       1 MOL         0.0000
      6 C4         20.3890   11.7000   32.7590 C.2       1 MOL         0.0000
      7 C5         21.2200   12.8190   32.1330 C.2       1 MOL         0.0000
      8 C6         21.2170   14.2820   32.4140 C.1       1 MOL         0.0000
      9 N1         21.0920   15.4250   32.5690 N.1       1 MOL         0.0000
     10 C7         19.3620   11.9500   33.8430 C.ar      1 MOL         0.0000
     11 C8         19.5340   11.3660   35.1780 C.ar      1 MOL         0.0000
     12 C9         18.5030   11.5450   36.2040 C.ar      1 MOL         0.0000
     13 C10        17.2880   12.3020   35.9330 C.ar      1 MOL         0.0000
     14 C11        16.2340   12.3640   36.9500 C.3       1 MOL         0.0000
     15 C12        17.1210   12.8940   34.6040 C.ar      1 MOL         0.0000
     16 C13        18.1430   12.7280   33.5580 C.ar      1 MOL         0.0000
     17 C14        20.1080    9.0140   32.4240 C.ar      1 MOL         0.0000
     18 C15        18.8030    8.7350   33.0060 C.ar      1 MOL         0.0000
     19 C16        18.5200    7.3490   33.1260 C.ar      1 MOL         0.0000
     20 N2         19.4040    6.3880   32.7260 N.ar      1 MOL         0.0000
     21 C17        20.6330    6.6800   32.1670 C.ar      1 MOL         0.0000
     22 N3         21.4330    5.5880   31.7490 N.pl3     1 MOL         0.0000
     23 C18        22.6280    5.4880   31.0000 C.ar      1 MOL         0.0000
     24 C19        23.3650    4.2330   31.1930 C.ar      1 MOL         0.0000
     25 C20        24.6470    3.9740   30.5290 C.ar      1 MOL         0.0000
     26 C21        25.2160    4.9950   29.6380 C.ar      1 MOL         0.0000
     27 C22        24.5050    6.2570   29.4180 C.ar      1 MOL         0.0000
     28 C23        23.2220    6.4990   30.0920 C.ar      1 MOL         0.0000
     29 N4         20.9830    8.0010   32.0190 N.ar      1 MOL         0.0000
     30 H1         22.1391   15.1109   29.7930 H         1 MOL         0.0000
     31 H2         22.8850   14.4972   28.2786 H         1 MOL         0.0000
     32 H3         21.3941   13.7283   28.9217 H         1 MOL         0.0000
     33 H4         20.4257   10.8009   35.4059 H         1 MOL         0.0000
     34 H5         18.6467   11.1070   37.1807 H         1 MOL         0.0000
     35 H6         16.6900   12.3795   37.9509 H         1 MOL         0.0000
     36 H7         15.6378   13.2769   36.8047 H         1 MOL         0.0000
     37 H8         15.5833   11.4820   36.8575 H         1 MOL         0.0000
     38 H9         16.2297   13.4640   34.3870 H         1 MOL         0.0000
     39 H10        18.0003   13.1747   32.5851 H         1 MOL         0.0000
     40 H11        18.1161    9.5083   33.3167 H         1 MOL         0.0000
     41 H12        17.5736    7.0443   33.5479 H         1 MOL         0.0000
     42 H13        21.0778    4.7017   32.0462 H         1 MOL         0.0000
     43 H14        22.9505    3.4773   31.8438 H         1 MOL         0.0000
     44 H15        25.1677    3.0422   30.6932 H         1 MOL         0.0000
     45 H16        26.1597    4.8147   29.1447 H         1 MOL         0.0000
     46 H17        24.9226    7.0070   28.7626 H         1 MOL         0.0000
     47 H18        22.7019    7.4303   29.9231 H         1 MOL         0.0000
@<TRIPOS>BOND
     1    1    2 1
     2    2    3 1
     3    3    7 2
     4    3    4 1
     5    4    5 1
     6    5    6 2
     7    6    7 1
     8    7    8 1
     9    8    9 3
    10    6   10 1
    11   10   16 ar
    12   10   11 ar
    13   11   12 ar
    14   12   13 ar
    15   13   14 1
    16   13   15 ar
    17   15   16 ar
    18    5   17 1
    19   17   29 ar
    20   17   18 ar
    21   18   19 ar
    22   19   20 ar
    23   20   21 ar
    24   21   22 1
    25   22   23 1
    26   23   28 ar
    27   23   24 ar
    28   24   25 ar
    29   25   26 ar
    30   26   27 ar
    31   27   28 ar
    32   21   29 ar
    33    1   30 1
    34    1   31 1
    35    1   32 1
    36   11   33 1
    37   12   34 1
    38   14   35 1
    39   14   36 1
    40   14   37 1
    41   15   38 1
    42   16   39 1
    43   18   40 1
    44   19   41 1
    45   22   42 1
    46   24   43 1
    47   25   44 1
    48   26   45 1
    49   27   46 1
    50   28   47 1
